@<TRIPOS>MOLECULE
2bsm_lig.pdb
45 47 1 0 0 
SMALL
USER_CHARGES


@<TRIPOS>ATOM
  1 CL25    33.5840    12.4180    22.4400 Cl    1 BSM  -0.1770 
  2 N1      30.4190     9.0730    27.8520 N.pl3 1 BSM   0.2996 
  3 H1      30.0028     9.0412    28.7717 H     1 BSM   0.2700 
  4 C2      31.3230     8.1960    27.4090 C.2   1 BSM  -0.2366 
  5 C3      31.6570     8.5710    26.1310 C.2   1 BSM  -0.0540 
  6 C4      30.8870     9.7460    25.8920 C.2   1 BSM   0.2348 
  7 N5      30.1470     9.9480    26.9810 N.2   1 BSM  -0.7068 
  8 C6      30.8960    10.5090    24.7240 C.ar  1 BSM   0.0540 
  9 C7      32.5790     7.9360    25.2640 C.ar  1 BSM   0.0540 
 10 C8      31.8440     7.0080    28.2280 C.2   1 BSM   0.7150 
 11 O9      32.3840     6.0480    27.7010 O.2   1 BSM  -0.5700 
 12 N10     31.6730     7.1410    29.5480 N.am  1 BSM  -0.7301 
 13 H10     31.2589     8.0003    29.8799 H     1 BSM   0.3700 
 14 C11     32.0850    11.0070    24.2240 C.ar  1 BSM  -0.1500 
 15 H11     33.0122    10.7911    24.7340 H     1 BSM   0.1500 
 16 C12     32.0980    11.7910    23.0590 C.ar  1 BSM   0.1770 
 17 C13     30.9090    12.0920    22.4120 C.ar  1 BSM   0.0825 
 18 C14     29.7020    11.5950    22.9230 C.ar  1 BSM  -0.1500 
 19 H14     28.7726    11.7996    22.4124 H     1 BSM   0.1500 
 20 C15     29.7050    10.8360    24.0920 C.ar  1 BSM   0.0825 
 21 C16     33.8950     7.7530    25.6730 C.ar  1 BSM  -0.1500 
 22 H16     34.2058     8.0984    26.6479 H     1 BSM   0.1500 
 23 C17     34.8200     7.1250    24.8320 C.ar  1 BSM  -0.1500 
 24 H17     35.8320     6.9806    25.1803 H     1 BSM   0.1500 
 25 C18     34.4740     6.6820    23.5620 C.ar  1 BSM   0.0825 
 26 C19     33.1400     6.8550    23.1240 C.ar  1 BSM  -0.1500 
 27 H19     32.8427     6.5220    22.1406 H     1 BSM   0.1500 
 28 C20     32.1930     7.4710    23.9890 C.ar  1 BSM  -0.1500 
 29 H20     31.1685     7.5838    23.6664 H     1 BSM   0.1500 
 30 O21     35.4700     6.0780    22.7990 O.3   1 BSM  -0.3625 
 31 C22     35.0300     5.5210    21.5590 C.3   1 BSM   0.0400 
 32 H221    35.8782     5.0748    21.0398 H     1 BSM   0.0800 
 33 H222    34.5981     6.3076    20.9403 H     1 BSM   0.0800 
 34 H223    34.2780     4.7556    21.7510 H     1 BSM   0.0800 
 35 O23     28.5470    10.3880    24.5870 O.3   1 BSM  -0.5325 
 36 H23     27.7683    10.6315    24.0812 H     1 BSM   0.4500 
 37 O24     30.9180    12.8280    21.2740 O.3   1 BSM  -0.5325 
 38 H24     30.0565    12.9671    20.8739 H     1 BSM   0.4500 
 39 C26     32.0460     6.1200    30.5660 C.3   1 BSM   0.1401 
 40 H261    31.3383     5.2931    30.5071 H     1 BSM   0.0800 
 41 H262    31.9907     6.5758    31.5546 H     1 BSM   0.0800 
 42 C27     33.4590     5.5720    30.3570 C.3   1 BSM  -0.2400 
 43 H271    33.5284     5.1127    29.3709 H     1 BSM   0.0800 
 44 H272    33.6761     4.8259    31.1214 H     1 BSM   0.0800 
 45 H273    34.1792     6.3869    30.4298 H     1 BSM   0.0800 
@<TRIPOS>BOND
  1   1  16  1   
  2   2   3  1   
  3   2   4  1   
  4   2   7  1   
  5   4   5  2   
  6   4  10  1   
  7   5   6  1   
  8   5   9  1   
  9   6   7  2   
 10   6   8  1   
 11   8  14  ar  
 12   8  20  ar  
 13   9  21  ar  
 14   9  28  ar  
 15  10  11  2   
 16  10  12  am  
 17  12  13  1   
 18  12  39  1   
 19  14  15  1   
 20  14  16  ar  
 21  16  17  ar  
 22  17  18  ar  
 23  17  37  1   
 24  18  19  1   
 25  18  20  ar  
 26  20  35  1   
 27  21  22  1   
 28  21  23  ar  
 29  23  24  1   
 30  23  25  ar  
 31  25  26  ar  
 32  25  30  1   
 33  26  27  1   
 34  26  28  ar  
 35  28  29  1   
 36  30  31  1   
 37  31  32  1   
 38  31  33  1   
 39  31  34  1   
 40  35  36  1   
 41  37  38  1   
 42  39  40  1   
 43  39  41  1   
 44  39  42  1   
 45  42  43  1   
 46  42  44  1   
 47  42  45  1   
@<TRIPOS>SUBSTRUCTURE
  1 BSM   9 TEMP 0 A BSM 0
# MOE 2008.10 (io_trps.svl 2008.02)
